Version 4
SHEET 1 952 680
WIRE 64 -96 -112 -96
WIRE 592 -96 368 -96
WIRE 592 -80 368 -80
WIRE 592 -64 368 -64
WIRE 848 -64 736 -64
WIRE 592 -48 368 -48
WIRE 592 -32 368 -32
WIRE 592 -16 368 -16
WIRE 64 32 -112 32
WIRE -160 224 -224 224
WIRE 64 224 -64 224
FLAG -224 224 MIDI_IN
FLAG -112 -96 POT5
FLAG -112 32 POT0
FLAG 848 -64 AUDIO
TEXT 368 -256 Left 2 ;Block Diagram
TEXT 144 264 Left 2 ;Arduino UNO
TEXT -144 -64 Left 2 ;.\n.\n.
TEXT 96 40 VLeft 2 ;Analog Inputs
TEXT 648 24 Left 2 ;DAC
TEXT -160 272 Left 2 ;Optoisolator\nCircuit
TEXT 104 232 VLeft 2 ;Rx Pin
TEXT 344 -16 VLeft 2 ;PORTD
RECTANGLE Normal 368 240 64 -128
RECTANGLE Normal 736 0 592 -128
RECTANGLE Normal -64 256 -160 176
